470
Actelion Java MolfileCreator 2.0

  0  0  0  0  0  0              0 V3000
M  V30 BEGIN CTAB
M  V30 COUNTS 18 17 0 0 0
M  V30 BEGIN ATOM
M  V30 1 O 15.515 -11.4539 -0.0582 0
M  V30 2 O 16.811 -13.1851 0.0877 0
M  V30 3 N 15.9266 -16.9999 -0.0117 0
M  V30 4 N 8.9019 -13.7221 0.0304 0
M  V30 5 C 12.407 -15.3648 0.0058 0
M  V30 6 C 14.6494 -15.1418 -0.0415 0 CFG=1
M  V30 7 C 11.0081 -13.4205 -0.0163 0
M  V30 8 C 15.787 -13.2102 0.0039 0
M  V30 9 H 11.6461 -16.7923 -0.0275 0
M  V30 10 H 12.5112 -15.6013 0.0932 0
M  V30 11 H 14.5934 -15.0247 -0.1293 0
M  V30 12 H 11.6949 -11.9863 0.0193 0
M  V30 13 H 10.8583 -13.16 -0.1031 0
M  V30 14 H 17.3721 -16.9182 -0.0487 0
M  V30 15 H 15.2156 -18.3455 -0.04 0
M  V30 16 H 8.1957 -15.0227 -0.0029 0
M  V30 17 H 7.9633 -12.455 0.0114 0
M  V30 18 H 16.236 -10.2071 -0.0279 0
M  V30 END ATOM
M  V30 BEGIN BOND
M  V30 1 1 1 8
M  V30 2 1 6 8
M  V30 3 2 2 8
M  V30 4 1 3 6
M  V30 5 1 5 7
M  V30 6 1 5 6
M  V30 7 1 4 7
M  V30 8 1 4 16
M  V30 9 1 4 17
M  V30 10 1 3 15
M  V30 11 1 3 14
M  V30 12 1 5 9
M  V30 13 1 5 10
M  V30 14 1 1 18
M  V30 15 1 6 11
M  V30 16 1 7 12
M  V30 17 1 7 13
M  V30 END BOND
M  V30 BEGIN COLLECTION
M  V30 MDLV30/STEABS ATOMS=(1 6)
M  V30 END COLLECTION
M  V30 END CTAB
M  END
