Example 1
Actelion Java MolfileCreator 2.0

  0  0  0  0  0  0              0 V3000
M  V30 BEGIN CTAB
M  V30 COUNTS 8 8 0 0 0
M  V30 BEGIN ATOM
M  V30 1 C 9.8437 -11.8437 0 0
M  V30 2 C 11.1427 -12.5937 0 0
M  V30 3 C 12.4418 -11.8437 0 0
M  V30 4 C 12.4418 -10.3437 0 0
M  V30 5 C 11.1427 -9.5937 0 0
M  V30 6 C 9.8437 -10.3437 0 0
M  V30 7 C 8.5446 -9.5937 0 0
M  V30 8 C 7.2456 -10.3437 0 0
M  V30 END ATOM
M  V30 BEGIN BOND
M  V30 1 2 1 2
M  V30 2 1 2 3
M  V30 3 2 3 4
M  V30 4 1 4 5
M  V30 5 2 5 6
M  V30 6 1 1 6
M  V30 7 1 6 7
M  V30 8 1 7 8
M  V30 END BOND
M  V30 END CTAB
M  END

> <NMRDB-H>
Atom IDs	delta	nb atoms	multipliciy	couplings
15,16,17	0.992	3	t	7.392
10	7.196	1	tt	7.718,1.292
8,12	7.162	2	dddd	7.758,1.293,0.985,0.507
13,14	2.653	2	q	7.392
9,11	7.26	2	tdd	7.718,1.596,0.507
