Example 3
Actelion Java MolfileCreator 2.0

  0  0  0  0  0  0              0 V3000
M  V30 BEGIN CTAB
M  V30 COUNTS 11 10 0 0 0
M  V30 BEGIN ATOM
M  V30 1 O 2.75 -10.375 0 0
M  V30 2 C 4.049 -9.625 0 0
M  V30 3 C 5.348 -10.375 0 0
M  V30 4 C 6.6471 -9.625 0 0
M  V30 5 O 7.9461 -10.375 0 0
M  V30 6 N 5.348 -11.875 0 0
M  V30 7 O 5.348 -8.875 0 0
M  V30 8 C 9.2451 -9.625 0 0
M  V30 9 C 10.5442 -10.375 0 0
M  V30 10 C 11.8432 -9.625 0 0
M  V30 11 C 10.5442 -11.875 0 0
M  V30 END ATOM
M  V30 BEGIN BOND
M  V30 1 1 1 2
M  V30 2 1 2 3
M  V30 3 1 3 4
M  V30 4 1 4 5
M  V30 5 1 3 6
M  V30 6 1 3 7
M  V30 7 1 5 8
M  V30 8 1 8 9
M  V30 9 1 9 10
M  V30 10 1 9 11
M  V30 END BOND
M  V30 END CTAB
M  END

> <NMRDB-H>
Atom IDs	delta	nb atoms	multipliciy	couplings
14	3.439	1	s
15	3.439	1	s
20	3.229	1	d	4.149
19	3.229	1	d	4.149
22,23,24	0.864	3	d	6.697
25,26,27	0.864	3	d	6.697
21	1.843	1	septt	6.697,4.149
12	3.46	1	s
13	3.46	1	s	
