


  6  5  0  0000  0  0  0  0  0999 V2000
    1.1509    0.0000    0.0000 C   0  0  0  0  0  0  0  0  0  0  0
    1.1509   -1.3307    0.0000 C   0  0  0  0  0  0  0  0  0  0  0
    2.3053   -1.9943    0.0000 C   0  0  0  0  0  0  0  0  0  0  0
    3.4563   -1.3307    0.0000 O   0  0  0  0  0  0  0  0  0  0  0
    2.3053   -3.3250    0.0000 O   0  0  0  0  0  0  0  0  0  0  0
    0.0000   -1.9943    0.0000 O   0  0  0  0  0  0  0  0  0  0  0
  1  2  1  0
  2  3  1  0
  2  6  1  0
  3  4  2  0
  3  5  1  0
M  END

> <StdInChI>
InChI=1S/C3H6O3/c1-2(4)3(5)6/h2,4H,1H3,(H,5,6)

> <StdInChIKey>
JVTAAEKCZFNVCJ-UHFFFAOYSA-N

> <AuxInfo>
1/1/N:1,2,3,6,4,5/E:(5,6)/rA:6nCCCOOO/rB:s1;s2;d3;s3;s2;/rC:1.1509,0,0;1.1509,-1.3307,0;2.3053,-1.9943,0;3.4563,-1.3307,0;2.3053,-3.325,0;0,-1.9943,0;

> <Formula>
C3 H6 O3

> <NMRDB-H>
Atom IDs	delta	nb atoms	multipliciy	couplings
9	4.309	1	q	6.9
6,7,8	1.42	3	d	6.9

> <Mw>
90.07794

> <SMILES>
CC(O)C(O)=O

> <CSID>
592

$$$$
